examples/national_grid/data/ireland/models/w10.raw
<!DOCTYPE HTML PUBLIC "-//W3C//DTD HTML 4.0 Transitional//EN">
<!-- saved from url=(0069)http://www.eirgrid.com/EirgridPortal/uploads/Publications/w10_web.raw -->
<HTML><HEAD>
<META http-equiv=Content-Type content="text/html; charset=windows-1252">
<META content="MSHTML 6.00.2900.3492" name=GENERATOR></HEAD>
<BODY><PRE>0,   100.00          / PSS/E-29.4    THU, JUL 22 2004  16:04
ESB NATIONAL GRID FORECAST STATEMENT 2004-2010
BASECASE WINTER 2010/2011
   10,'F_M_____',  38.0000,1,     0.000,     0.000,   1,   1,1.05736, -18.6094,   2
   11,'FMN_LOOP',  38.0000,1,     0.000,     0.000,   1,   1,1.04842, -14.2862,   2
   12,'BEDFORD ',  38.0000,1,     0.000,     0.000,   1,   1,1.04162, -16.9457,   2
   13,'M_R_____',  38.0000,1,     0.000,     0.000,   1,   1,1.05579, -15.9437,   2
   14,'F_I_____',  38.0000,1,     0.000,     0.000,   1,   1,1.05322, -17.1049,   2
   15,'I_M_____',  38.0000,1,     0.000,     0.000,   1,   1,1.03823, -17.0259,   2
   41,'TANEY   ', 110.0000,1,     0.000,     0.000,   1,   1,1.04704, -10.1869,   1
   51,'MISERY H', 110.0000,1,     0.000,     0.000,   1,   1,1.05927,  -8.3840,   1
   52,'MISERY H',  38.0000,1,     0.000,     0.000,   1,   1,1.05927,  -8.3840,   1
 1021,'ARDNACRU', 110.0000,1,     0.000,     0.000,   7,   1,1.02200,  -8.1685,   1
 1041,'AGHADA  ', 110.0000,1,     0.000,     0.000,   3,   1,1.06724,  -8.4505,   1
 1042,'AGHADA  ', 220.0000,1,     0.000,     0.000,   3,   1,1.07000,  -5.4243,   1
 1061,'ARIGNA  ', 110.0000,1,     0.000,     0.000,   9,   1,1.04871, -13.0466,   2
 1081,'AHANE   ', 110.0000,1,     0.000,     0.000,   7,   1,1.02981,  -8.0084,   2
 1101,'ANNER   ', 110.0000,1,     0.000,     0.000,   5,   3,1.02594, -14.5461,   5
 1121,'ARKLOW  ', 110.0000,1,     0.000,     0.000,   6,   1,1.06115,  -8.6187,   1
 1122,'ARKLOW  ', 220.0000,1,     0.000,     0.000,   6,   1,1.06112,  -6.3200,   1
 1141,'ATHLONE ', 110.0000,1,     0.000,     0.000,   8,   1,1.05973, -11.0259,   1
 1151,'ARKLOW B', 110.0000,2,     0.000,     0.000,   6,   1,1.06441,  -8.3581,   1
 1161,'AUGHINIS', 110.0000,1,     0.000,     0.000,   7,   3,1.07500,  -0.7490,   1
 1171,'SEALROCK', 110.0000,1,     0.000,     0.000,   7,   1,1.07591,  -0.6994,   1
 1181,'ARVA    ', 110.0000,1,     0.000,     0.000,  10,   1,1.02899, -13.6994,   1
 1191,'SEALROCK', 110.0000,1,     0.000,     0.000,   7,   1,1.07591,  -0.6994,   1
 1201,'ARTANE  ', 110.0000,1,     0.000,     0.000,   1,   1,1.04886, -10.1952,   2
 1221,'ATHY    ', 110.0000,1,     0.000,     0.000,   8,   1,1.04278, -10.4338,   1
 1231,'BALLYWAT', 110.0000,2,     0.000,     0.000,   6,   1,1.03834, -11.3964,   1
 1251,'BOOLTIAG', 110.0000,2,     0.000,     0.000,   7,   1,0.99777,  -9.3311,   1
 1281,'BALLYLIC', 110.0000,1,     0.000,     0.000,   3,   1,1.03483, -11.0934,   2
 1301,'BALLYBEG', 110.0000,1,     0.000,     0.000,   6,   1,1.05602,  -9.0807,   1
 1321,'BLAKE   ', 110.0000,1,     0.000,     0.000,   8,   1,1.03638, -10.0619,   2
 1341,'BINBANE ', 110.0000,1,     0.000,     0.000,   9,   1,0.98957, -16.5221,   2
 1361,'BALLYDIN', 110.0000,1,     0.000,     0.000,   5,   1,1.03285, -13.4871,   1
 1381,'BARNAHEL', 110.0000,1,     0.000,     0.000,   3,   1,1.05876,  -9.5656,   1
 1401,'BELLACOR', 110.0000,1,     0.000,     0.000,   9,   1,1.05764, -17.0458,   1
 1421,'BLACKROC', 110.0000,1,     0.000,     0.000,   2,   2,1.05979,  -8.6850,   2
 1441,'BANDON  ', 110.0000,1,     0.000,     0.000,   3,   1,1.03955, -11.2274,   1
 1461,'BARRYMOR', 110.0000,1,     0.000,     0.000,   5,   1,1.04400, -11.5527,   2
 1481,'BUTLERST', 110.0000,1,     0.000,     0.000,   5,   1,1.04611, -11.5048,   1
 1501,'BRINNY  ', 110.0000,1,     0.000,     0.000,   3,   1,1.03941, -11.2360,   5
 1511,'BRINNY  ', 110.0000,1,     0.000,     0.000,   3,   1,1.03942, -11.2356,   5
 1541,'BANOGE  ', 110.0000,1,     0.000,     0.000,   6,   1,1.04342, -10.4359,   1
 1581,'CABRA   ', 110.0000,1,     0.000,     0.000,   1,   2,1.04813, -10.2287,   2
 1601,'CLASHAVO', 110.0000,1,     0.000,     0.000,   3,   1,1.05223,  -7.9885,   1
 1602,'CLASHAVO', 220.0000,1,     0.000,     0.000,   3,   1,1.05464,  -4.0486,   1
 1621,'COOLROE ', 110.0000,1,     0.000,     0.000,   3,   1,1.04789,  -9.7412,   1
 1631,'CORDERRY', 110.0000,1,     0.000,     0.000,   9,   1,1.04632, -13.3800,   1
 1641,'CASHLA  ', 110.0000,1,     0.000,     0.000,   9,   1,1.06275,  -7.0371,   1
 1642,'CASHLA  ', 220.0000,1,     0.000,     0.000,   9,   1,1.04239,  -2.1976,   1
 1661,'CASTLEBA', 110.0000,1,     0.000,     0.000,   9,   1,1.08053, -16.2395,   1
 1681,'CARRIGAD', 110.0000,1,     0.000,     0.000,   3,   1,1.05000,  -9.2171,   1
 1701,'CATH_FAL', 110.0000,1,     0.000,     0.000,   9,   1,1.02800, -14.9483,   1
 1721,'CAHIR   ', 110.0000,1,     0.000,     0.000,   5,   1,1.03067, -14.4130,   1
 1741,'CARRICKM', 110.0000,1,     0.000,     0.000,   2,   2,1.06152,  -8.5367,   2
 1742,'CARRICKM', 220.0000,1,     0.000,     0.000,   2,   2,1.07079,  -4.1717,   1
 1761,'CLIFF   ', 110.0000,1,     0.000,     0.000,   9,   1,1.02950, -14.7570,   1
 1781,'CASTLEFA', 110.0000,1,     0.000,     0.000,   7,   3,1.07461,  -0.7671,   5
 1791,'CASTLEFA', 110.0000,1,     0.000,     0.000,   7,   3,1.07461,  -0.7671,   5
 1801,'COOKSTOW', 110.0000,1,     0.000,     0.000,   1,   2,1.04140, -10.2302,   2
 1821,'CLOON   ', 110.0000,1,     0.000,     0.000,   9,   1,1.06082, -10.3828,   2
 1841,'CRANE   ', 110.0000,1,     0.000,     0.000,   6,   1,1.03441, -11.8393,   1
 1861,'CARRICK ', 110.0000,1,     0.000,     0.000,   9,   1,1.05365, -12.6661,   1
 1871,'COLLEGE ', 110.0000,1,     0.000,     0.000,   2,   1,1.06187,  -8.1823,   1
 1881,'CHARLEVI', 110.0000,1,     0.000,     0.000,   3,   1,1.00330, -10.7128,   1
 1901,'CARLOW  ', 110.0000,1,     0.000,     0.000,   8,   1,1.05629, -10.5577,   1
 1921,'COW CROS', 110.0000,1,     0.000,     0.000,   3,   1,1.05939,  -9.4828,   1
 1931,'CUNGHILL', 110.0000,1,     0.000,     0.000,   9,   1,1.04006, -15.1782,   4
 1941,'CUSHALIN', 110.0000,1,     0.000,     0.000,   8,   1,1.07500,  -6.4529,   1
 1961,'CASTLEVI', 110.0000,1,     0.000,     0.000,   3,   1,1.06033,  -9.5308,   1
 1981,'CORRACLA', 110.0000,1,     0.000,     0.000,   9,   1,1.03235, -14.8421,   1
 2001,'CULLENAG', 110.0000,1,     0.000,     0.000,   5,   1,1.05299, -11.1581,   1
 2002,'CULLENAG', 220.0000,1,     0.000,     0.000,   5,   1,1.04997,  -7.9975,   1
 2021,'CITY WES', 110.0000,1,     0.000,     0.000,   1,   1,1.04349, -10.1277,   2
 2041,'CORDUFF ', 110.0000,1,     0.000,     0.000,   2,   1,1.06274,  -8.1029,   1
 2042,'CORDUFF ', 220.0000,1,     0.000,     0.000,   2,   1,1.07205,  -4.4416,   1
 2081,'DUNKETTL', 110.0000,1,     0.000,     0.000,   3,   1,1.06033,  -9.5308,   5
 2101,'DUNDALK ', 110.0000,1,     0.000,     0.000,  10,   1,1.02854, -12.4701,   1
 2121,'DRUMLINE', 110.0000,1,     0.000,     0.000,   7,   1,1.00064,  -9.3608,   1
 2141,'DUNGARVA', 110.0000,1,     0.000,     0.000,   5,   1,1.03548, -11.7536,   1
 2161,'DOON    ', 110.0000,1,     0.000,     0.000,   5,   1,1.02653, -14.5113,   1
 2181,'DRYBRIDG', 110.0000,1,     0.000,     0.000,  10,   1,1.03838, -11.5952,   1
 2202,'DUNSTOWN', 220.0000,1,     0.000,     0.000,   2,   1,1.06867,  -3.7157,   1
 2204,'DUNSTOWN', 380.0000,1,     0.000,     0.000,   2,   1,1.01974,   0.6222,   1
 2221,'DUNMANWA', 110.0000,1,     0.000,     0.000,   3,   1,1.03548, -11.0736,   1
 2231,'DERRYBRI', 110.0000,2,     0.000,     0.000,   9,   1,1.03493,  -7.4666,   1
 2241,'DALLOW  ', 110.0000,1,     0.000,     0.000,   5,   1,1.03991,  -8.6744,   2
 2261,'DERRYIRO', 110.0000,1,     0.000,     0.000,   2,   1,1.03028, -11.2516,   1
 2281,'DALTON  ', 110.0000,1,     0.000,     0.000,   9,   1,1.07104, -13.9844,   1
 2301,'DUNFIRTH', 110.0000,1,     0.000,     0.000,   2,   1,1.04198, -10.4353,   2
 2321,'DRUMKEEN', 110.0000,1,     0.000,     0.000,   9,   1,1.00899, -17.1033,   1
 2361,'ENNIS   ', 110.0000,1,     0.000,     0.000,   7,   1,1.00117,  -9.3161,   1
 2481,'FASS EAS', 110.0000,1,     0.000,     0.000,   2,   2,1.05309,  -8.9480,   2
 2491,'FASS WES', 110.0000,1,     0.000,     0.000,   2,   2,1.05284,  -8.9443,   2
 2521,'FLAGFORD', 110.0000,1,     0.000,     0.000,   9,   1,1.05739, -12.4900,   1
 2522,'FLAGFORD', 220.0000,1,     0.000,     0.000,   9,   1,0.98882,  -9.1482,   1
 2541,'FRN ST A', 110.0000,1,     0.000,     0.000,   1,   2,1.05760,  -8.5082,   2
 2551,'FRN ST B', 110.0000,1,     0.000,     0.000,   1,   2,1.05018,  -9.7456,   2
 2561,'FIN_URBA', 110.0000,1,     0.000,     0.000,   2,   2,1.05170,  -9.9678,   1
 2562,'FINGLAS ', 220.0000,2,     0.000,     0.000,   2,   2,1.07500,  -4.2439,   1
 2571,'FIN_RURA', 110.0000,1,     0.000,     0.000,   2,   2,1.06154,  -8.2228,   1
 2681,'GILRA   ', 110.0000,1,     0.000,     0.000,   9,   3,1.05855, -12.7887,   2
 2701,'GLASMORE', 110.0000,1,     0.000,     0.000,   2,   2,1.03193, -11.2615,   2
 2721,'GRIFFINR', 110.0000,1,     0.000,     0.000,   2,   2,1.05850,  -9.2350,   2
 2731,'GRIFFINR', 110.0000,1,     0.000,     0.000,   2,   1,1.05918,  -9.2043,   2
 2741,'GREAT IS', 110.0000,1,     0.000,     0.000,   6,   1,1.06000, -10.4640,   1
 2742,'GREAT IS', 220.0000,1,     0.000,     0.000,   6,   1,1.05500,  -7.5011,   1
 2761,'GRANGE  ', 110.0000,1,     0.000,     0.000,   1,   2,1.04885, -10.2079,   2
 2781,'GALWAY  ', 110.0000,1,     0.000,     0.000,   9,   1,1.04391,  -7.8572,   1
 2801,'GOLAGH  ', 110.0000,1,     0.000,     0.000,   9,   1,1.01799, -15.8621,   1
 2821,'GORTAWEE', 110.0000,1,     0.000,     0.000,   9,   1,1.03288, -14.8339,   1
 2841,'GORMAN  ', 110.0000,1,     0.000,     0.000,  10,   1,1.05888, -11.8821,   1
 2842,'GORMAN  ', 220.0000,1,     0.000,     0.000,  10,   1,1.00357,  -8.0227,   1
 2861,'GRANGE C', 110.0000,1,     0.000,     0.000,   1,   1,1.04759,  -9.9972,   2
 2881,'GLENLARA', 110.0000,1,     0.000,     0.000,   3,   1,0.98922, -11.4933,   2
 2921,'HAULBOWL', 110.0000,1,     0.000,     0.000,   3,   3,1.06015,  -9.4871,   5
 2931,'HAULBOWL', 110.0000,1,     0.000,     0.000,   3,   3,1.05877,  -9.5658,   5
 2941,'HAROLDS ', 110.0000,1,     0.000,     0.000,   1,   2,1.05821,  -8.4578,   2
 2962,'HUNTSTOW', 220.0000,1,     0.000,     0.000,   2,   1,1.07579,  -4.1461,   1
 2981,'HARNETTS', 110.0000,1,     0.000,     0.000,   3,   1,1.04881,  -9.2906,   2
 3061,'INISCARR', 110.0000,1,     0.000,     0.000,   3,   1,1.05000,  -9.4270,   1
 3081,'INCHICOR', 110.0000,1,     0.000,     0.000,   1,   2,1.05368,  -9.5279,   2
 3082,'INCHICOR', 220.0000,1,     0.000,     0.000,   2,   2,1.07102,  -4.5972,   1
 3101,'IKERRIN ', 110.0000,1,     0.000,     0.000,   5,   1,1.00178, -13.9303,   2
 3122,'IRISHTOW', 220.0000,1,     0.000,     0.000,   2,   1,1.07560,  -3.7295,   1
 3201,'KNOCKRAH', 110.0000,1,     0.000,     0.000,   3,   1,1.06313,  -9.4003,   1
 3202,'KNOCKRAH', 220.0000,1,     0.000,     0.000,   3,   1,1.05674,  -6.1850,   1
 3221,'KILBARRY', 110.0000,1,     0.000,     0.000,   3,   1,1.04717, -10.1063,   1
 3241,'KILTEEL ', 110.0000,1,     0.000,     0.000,   8,   1,1.03792, -10.0645,   2
 3261,'KILKENNY', 110.0000,1,     0.000,     0.000,   8,   1,1.00126, -13.2060,   1
 3281,'KILLONAN', 110.0000,1,     0.000,     0.000,   7,   1,1.03034,  -7.9671,   1
 3282,'KILLONAN', 220.0000,1,     0.000,     0.000,   7,   1,1.04307,  -3.9136,   1
 3301,'KNOCKERA', 110.0000,1,     0.000,     0.000,   7,   1,1.02642,  -6.5351,   1
 3321,'KNOCKUMB', 110.0000,1,     0.000,     0.000,  10,   3,1.04965, -12.3707,   5
 3341,'KELLIS  ', 110.0000,1,     0.000,     0.000,   8,   1,1.06322, -10.4062,   1
 3342,'KELLIS  ', 220.0000,1,     0.000,     0.000,   8,   1,1.03399,  -6.9440,   1
 3361,'KILTOY  ', 110.0000,1,     0.000,     0.000,   9,   3,1.00162, -17.9031,   5
 3371,'KILTOY  ', 110.0000,1,     0.000,     0.000,   9,   3,1.00152, -17.9085,   5
 3381,'KINNEGAD', 110.0000,1,     0.000,     0.000,   2,   1,1.03311, -11.1020,   1
 3401,'KILLOTER', 110.0000,1,     0.000,     0.000,   5,   1,1.04788, -11.3906,   1
 3421,'KILMORE ', 110.0000,1,     0.000,     0.000,   1,   1,1.05010, -10.1177,   2
 3441,'KILMURRY', 110.0000,1,     0.000,     0.000,   8,   1,1.04799, -11.0279,   1
 3501,'LANESBOR', 110.0000,1,     0.000,     0.000,   9,   1,1.06000, -11.1952,   1
 3521,'LOUTH   ', 110.0000,1,     0.000,     0.000,  10,   1,1.05452, -11.2521,   1
 3522,'LOUTH   ', 220.0000,1,     0.000,     0.000,  10,   1,1.00218,  -8.6949,   1
 3541,'LIMERICK', 110.0000,1,     0.000,     0.000,   7,   1,1.02226,  -7.6081,   1
 3561,'LISDRUM ', 110.0000,1,     0.000,     0.000,  10,   1,1.01348, -13.5837,   1
 3581,'LETTERKE', 110.0000,1,     0.000,     0.000,   9,   1,1.00276, -17.8296,   1
 3601,'LIBERTY ', 110.0000,1,     0.000,     0.000,   3,   1,1.04967,  -9.9970,   2
 3611,'LIBERTY ', 110.0000,1,     0.000,     0.000,   3,   1,1.04997,  -9.9860,   2
 3621,'LISHEEN ', 110.0000,1,     0.000,     0.000,   5,   1,0.99811, -15.8439,   1
 3761,'MACETOWN', 110.0000,1,     0.000,     0.000,   2,   2,1.05884,  -8.4750,   1
 3781,'MCDERMOT', 110.0000,1,     0.000,     0.000,   1,   2,1.04770, -10.2530,   2
 3801,'MIDLETON', 110.0000,1,     0.000,     0.000,   3,   1,1.05681,  -9.5182,   1
 3821,'MEATH HI', 110.0000,1,     0.000,     0.000,  10,   1,1.04618, -11.9537,   2
 3841,'MAYNOOTH', 110.0000,1,     0.000,     0.000,   2,   2,1.06097,  -9.0277,   1
 3842,'MAYNOOTH', 220.0000,1,     0.000,     0.000,   2,   2,1.05931,  -4.9646,   1
 3861,'MILLTOWN', 110.0000,1,     0.000,     0.000,   1,   2,1.05957,  -8.3174,   2
 3871,'MILLTOWN', 110.0000,1,     0.000,     0.000,   1,   2,1.04760, -10.1533,   2
 3881,'MACROOM ', 110.0000,1,     0.000,     0.000,   3,   1,1.04988,  -9.2024,   1
 3901,'MONETEEN', 110.0000,1,     0.000,     0.000,   7,   1,1.03071,  -6.4104,   1
 3941,'MONEYPOI', 110.0000,1,     0.000,     0.000,   7,   1,0.99249,  -9.5968,   1
 3942,'MONEYPOI', 220.0000,1,     0.000,     0.000,   7,   1,1.07031,   4.8556,   1
 3944,'MNYPG1G3', 380.0000,1,     0.000,     6.000,   2,   1,1.07500,   7.2265,   1
 3954,'MNYPG2  ', 380.0000,1,     0.000,     6.000,   7,   1,1.07500,   9.5872,   1
 3961,'MARINA  ', 110.0000,1,     0.000,     0.000,   3,   1,1.05000,  -9.9813,   1
 3981,'MUNGRET ', 110.0000,1,     0.000,     0.000,   7,   3,1.03052,  -6.4217,   5
 3991,'MUNGRET ', 110.0000,1,     0.000,     0.000,   7,   3,1.03052,  -6.4212,   5
 4001,'MULLINGA', 110.0000,1,     0.000,     0.000,   9,   1,1.01187, -12.3471,   1
 4021,'MALLOW  ', 110.0000,1,     0.000,     0.000,   3,   1,1.01463, -10.9841,   1
 4041,'MOY     ', 110.0000,1,     0.000,     0.000,   9,   1,1.04402, -17.5314,   1
 4061,'MULLAGHA', 110.0000,1,     0.000,     0.000,  10,   1,1.03703, -12.0772,   2
 4071,'MEENTYCA', 110.0000,2,     0.000,     0.000,   9,   1,1.01091, -16.8640,   1
 4081,'MONREAD ', 110.0000,1,     0.000,     0.000,   8,   1,1.03486, -10.1205,   1
 4201,'NEWBRIDG', 110.0000,1,     0.000,     0.000,   8,   1,1.03522,  -9.8952,   1
 4221,'NAVAN   ', 110.0000,1,     0.000,     0.000,  10,   1,1.05312, -12.1675,   1
 4242,'NORTH WA', 220.0000,1,     0.000,     0.000,   2,   2,1.07590,  -4.3487,   1
 4261,'NENAGH  ', 110.0000,1,     0.000,     0.000,   7,   1,1.00763,  -9.1707,   1
 4281,'NANGOR  ', 110.0000,1,     0.000,     0.000,   1,   1,1.04735, -10.0142,   1
 4341,'OLDCOURT', 110.0000,1,     0.000,     0.000,   3,   3,1.05940,  -9.4828,   5
 4351,'OLDCOURT', 110.0000,1,     0.000,     0.000,   3,   3,1.05940,  -9.4828,   5
 4361,'OUGHTRAG', 110.0000,1,     0.000,     0.000,   7,   1,1.02655,  -4.8964,   2
 4382,'OLDSTREE', 220.0000,1,     0.000,     0.000,   9,   1,1.07091,   3.7342,   1
 4384,'OLDSTREE', 380.0000,1,     0.000,     0.000,   9,   1,1.06014,   3.8907,   1
 4441,'POLLAPHU', 110.0000,1,     0.000,     0.000,   8,   1,1.06000,  -9.0245,   1
 4451,'POOLBEG ', 110.0000,1,     0.000,     0.000,   1,   1,1.06087,  -8.2335,   2
 4461,'POOLBEG ', 110.0000,1,     0.000,     0.000,   1,   1,1.06148,  -8.1092,   2
 4462,'POOLBEG ', 220.0000,1,     0.000,     0.000,   2,   2,1.07500,  -4.4464,   1
 4471,'POOLBEG ', 110.0000,1,     0.000,     0.000,   1,   1,1.06146,  -8.1130,   2
 4481,'PORTLAOI', 110.0000,1,     0.000,     0.000,   8,   1,1.04178,  -9.5667,   1
 4501,'PLATIN  ', 110.0000,1,     0.000,     0.000,  10,   3,1.04191, -11.3527,   1
 4522,'PROSPECT', 220.0000,1,     0.000,     0.000,   7,   1,1.07208,   3.6333,   1
 4621,'RYEBROOK', 110.0000,1,     0.000,     0.000,   2,   3,1.05078,  -9.4649,   1
 4651,'RINGSEND', 110.0000,1,     0.000,     0.000,   1,   2,1.06086,  -8.2333,   2
 4681,'RATHKEAL', 110.0000,1,     0.000,     0.000,   7,   1,1.02868,  -4.5958,   1
 4701,'RICHMOND', 110.0000,1,     0.000,     0.000,   9,   1,1.04282, -11.9509,   2
 4721,'RAFFEEN ', 110.0000,1,     0.000,     0.000,   3,   1,1.06012,  -9.4867,   1
 4722,'RAFFEEN ', 220.0000,1,     0.000,     0.000,   3,   1,1.06033,  -6.8052,   1
 4741,'RINAWADE', 110.0000,1,     0.000,     0.000,   2,   3,1.05439,  -9.4583,   1
 4761,'RINGASKI', 110.0000,1,     0.000,     0.000,   3,   1,1.05974,  -9.5074,   2
 4781,'RATRUSSA', 110.0000,1,     0.000,     0.000,  10,   1,1.02500, -12.4384,   1
 4901,'SHELTON ', 110.0000,1,     0.000,     0.000,   6,   3,1.06115,  -8.6188,   5
...
0 / END OF BUS DATA, BEGIN LOAD DATA
   10,'LD',1,   1,   1,   120.060,    36.530,     0.000,     0.000,     0.000,     0.000,   2
   11,'LD',1,   1,   1,    95.970,    18.690,     0.000,     0.000,     0.000,     0.000,   2
   12,'LD',1,   1,   1,   109.210,    17.870,     0.000,     0.000,     0.000,     0.000,   2
   13,'LD',1,   1,   1,   100.730,    26.870,     0.000,     0.000,     0.000,     0.000,   2
   14,'LD',1,   1,   1,   105.230,    25.270,     0.000,     0.000,     0.000,     0.000,   2
   15,'LD',1,   1,   1,   113.180,    17.190,     0.000,     0.000,     0.000,     0.000,   2
   41,'LD',1,   1,   1,    19.520,     7.980,     0.000,     0.000,     0.000,     0.000,   2
   51,'LD',1,   1,   1,     7.680,     2.390,     0.000,     0.000,     0.000,     0.000,   2
 1101,'LD',1,   5,   2,    11.000,     3.850,     0.000,     0.000,     0.000,     0.000,   5
 1101,'MI',0,   5,   2,     6.500,     1.950,     0.000,     0.000,     0.000,     0.000,   5
 1871,'LD',1,   2,   2,    16.000,     5.250,     0.000,     0.000,     0.000,     0.000,   5
 2821,'LD',1,   9,   2,    16.000,     5.550,     0.000,     0.000,     0.000,     0.000,   5
 2821,'MI',0,   9,   2,     6.000,     1.800,     0.000,     0.000,     0.000,     0.000,   5
 3321,'LD',1,  10,   2,    22.000,     7.480,     0.000,     0.000,     0.000,     0.000,   5
 3321,'MI',0,  10,   2,     1.000,     0.300,     0.000,     0.000,     0.000,     0.000,   5
 3421,'LD',1,   1,   2,    12.000,     4.060,     0.000,     0.000,     0.000,     0.000,   5
 3621,'LD',1,   5,   2,    15.000,     4.930,     0.000,     0.000,     0.000,     0.000,   5
 3621,'MI',0,   5,   2,     2.000,     0.600,     0.000,     0.000,     0.000,     0.000,   5
 4501,'LD',1,  10,   2,    27.000,     9.170,     0.000,     0.000,     0.000,     0.000,   5
 4501,'MI',0,  10,   2,     6.500,     1.950,     0.000,     0.000,     0.000,     0.000,   5
 5031,'LD',1,   2,   1,    15.880,     7.990,     0.000,     0.000,     0.000,     0.000,   2
10204,'LD',1,   7,   1,    29.780,     9.270,     0.000,     0.000,     0.000,     0.000,   2
10205,'LD',1,   7,   1,    39.330,    13.480,     0.000,     0.000,     0.000,     0.000,   2
10471,'LD',1,   3,   1,    10.830,     3.900,     0.000,     0.000,     0.000,     0.000,   3
10602,'LD',1,   9,   1,     3.840,     1.720,     0.000,     0.000,     0.000,     0.000,   2
10801,'LD',1,   7,   1,     6.880,     2.250,     0.000,     0.000,     0.000,     0.000,   2
11204,'LD',1,   6,   1,    34.460,    14.220,     0.000,     0.000,     0.000,     0.000,   2
11404,'LD',1,   9,   1,    73.600,    23.300,     0.000,     0.000,     0.000,     0.000,   2
11671,'LD',1,   7,   1,     1.530,     0.550,     0.000,     0.000,     0.000,     0.000,   1
11672,'LD',1,   7,   1,     1.530,     0.550,     0.000,     0.000,     0.000,     0.000,   4
12001,'LD',1,   1,   1,    15.220,     3.810,     0.000,     0.000,     0.000,     0.000,   2
12202,'LD',1,   8,   1,    18.290,     6.050,     0.000,     0.000,     0.000,     0.000,   2
12804,'LD',1,   3,   1,    17.210,     5.290,     0.000,     0.000,     0.000,     0.000,   2
13001,'LD',1,   6,   1,    20.490,     8.100,     0.000,     0.000,     0.000,     0.000,   2
13204,'LD',1,   8,   1,    28.990,     8.520,     0.000,     0.000,     0.000,     0.000,   2
13404,'LD',1,   9,   1,    31.890,    13.770,     0.000,     0.000,     0.000,     0.000,   2
13601,'LD',1,   5,   2,     5.900,     1.930,     0.000,     0.000,     0.000,     0.000,   5
13601,'MI',0,   5,   2,     1.590,     0.470,     0.000,     0.000,     0.000,     0.000,   5
13604,'LD',1,   5,   1,     6.080,     2.250,     0.000,     0.000,     0.000,     0.000,   2
13802,'LD',1,   3,   1,    30.180,     9.800,     0.000,     0.000,     0.000,     0.000,   2
13804,'LD',1,   3,   1,    30.710,     9.530,     0.000,     0.000,     0.000,     0.000,   2
14002,'LD',1,   9,   1,     5.410,     1.850,     0.000,     0.000,     0.000,     0.000,   2
14204,'LD',1,   2,   1,    75.380,    11.780,     0.000,     0.000,     0.000,     0.000,   2
14401,'LD',1,   3,   1,    12.310,     3.590,     0.000,     0.000,     0.000,     0.000,   2
14404,'LD',1,   3,   1,    25.150,     9.390,     0.000,     0.000,     0.000,     0.000,   2
14604,'LD',1,   5,   1,    31.770,    11.910,     0.000,     0.000,     0.000,     0.000,   2
14804,'LD',1,   5,   1,    47.390,    11.120,     0.000,     0.000,     0.000,     0.000,   2
15001,'LD',1,   3,   2,     4.200,     1.380,     0.000,     0.000,     0.000,     0.000,   5
15001,'MI',0,   3,   2,     2.290,     0.680,     0.000,     0.000,     0.000,     0.000,   5
15401,'LD',1,   6,   1,    18.510,     4.980,     0.000,     0.000,     0.000,     0.000,   2
15801,'LD',1,   1,   1,    20.390,     6.620,     0.000,     0.000,     0.000,     0.000,   2
16202,'LD',1,   3,   1,     9.520,     3.180,     0.000,     0.000,     0.000,     0.000,   2
16604,'LD',1,   9,   1,    70.240,    22.970,     0.000,     0.000,     0.000,     0.000,   2
17004,'LD',1,   9,   1,    21.180,     7.020,     0.000,     0.000,     0.000,     0.000,   2
17204,'LD',1,   5,   1,    33.170,    11.090,     0.000,     0.000,     0.000,     0.000,   2
17404,'LD',1,   2,   1,   110.660,    22.900,     0.000,     0.000,     0.000,     0.000,   2
17802,'LD',1,   7,   2,    44.000,    14.460,     0.000,     0.000,     0.000,     0.000,   5
17802,'MI',0,   7,   2,     5.000,     1.500,     0.000,     0.000,     0.000,     0.000,   5
18004,'LD',1,   1,   1,   115.430,    32.430,     0.000,     0.000,     0.000,     0.000,   2
18204,'LD',1,   9,   1,    25.680,     6.580,     0.000,     0.000,     0.000,     0.000,   2
18402,'LD',1,   6,   1,     5.290,     1.720,     0.000,     0.000,     0.000,     0.000,   2
18404,'LD',1,   6,   1,    19.600,     6.190,     0.000,     0.000,     0.000,     0.000,   2
18604,'LD',1,   9,   1,    45.440,    17.570,     0.000,     0.000,     0.000,     0.000,   2
18804,'LD',1,   3,   1,    24.360,     8.860,     0.000,     0.000,     0.000,     0.000,   2
19004,'LD',1,   8,   1,    59.250,    21.840,     0.000,     0.000,     0.000,     0.000,   2
19204,'LD',1,   3,   1,    24.490,     3.180,     0.000,     0.000,     0.000,     0.000,   2
19471,'LD',1,   8,   1,    11.700,     4.210,     0.000,     0.000,     0.000,     0.000,   4
19601,'LD',1,   3,   1,    13.240,     4.370,     0.000,     0.000,     0.000,     0.000,   2
20201,'LD',1,   1,   1,     9.800,     3.180,     0.000,     0.000,     0.000,     0.000,   2
21004,'LD',1,  10,   1,    85.910,    27.270,     0.000,     0.000,     0.000,     0.000,   2
21204,'LD',1,   7,   1,    42.360,    12.050,     0.000,     0.000,     0.000,     0.000,   2
21404,'LD',1,   5,   1,    39.980,    10.720,     0.000,     0.000,     0.000,     0.000,   2
21604,'LD',1,   5,   1,    41.170,     6.350,     0.000,     0.000,     0.000,     0.000,   2
21804,'LD',1,  10,   1,    90.530,    26.740,     0.000,     0.000,     0.000,     0.000,   2
22204,'LD',1,   3,   1,    36.140,    11.370,     0.000,     0.000,     0.000,     0.000,   2
22404,'LD',1,   5,   1,    16.810,     5.560,     0.000,     0.000,     0.000,     0.000,   2
22804,'LD',1,   9,   1,    22.240,     7.190,     0.000,     0.000,     0.000,     0.000,   2
23001,'LD',1,   2,   1,     9.660,     3.260,     0.000,     0.000,     0.000,     0.000,   2
23604,'LD',1,   7,   1,    75.580,    25.680,     0.000,     0.000,     0.000,     0.000,   2
24804,'LD',1,   2,   1,    77.700,    25.140,     0.000,     0.000,     0.000,     0.000,   2
25604,'LD',1,   2,   1,   129.330,    32.300,     0.000,     0.000,     0.000,     0.000,   2
26802,'LD',1,   9,   2,    12.000,     3.940,     0.000,     0.000,     0.000,     0.000,   5
26802,'MI',0,   9,   2,     2.000,     0.600,     0.000,     0.000,     0.000,     0.000,   5
27004,'LD',1,   2,   1,    65.260,    10.790,     0.000,     0.000,     0.000,     0.000,   2
27204,'LD',1,   2,   1,    84.310,     5.290,     0.000,     0.000,     0.000,     0.000,   2
27404,'LD',1,   6,   1,    25.150,    10.590,     0.000,     0.000,     0.000,     0.000,   2
27471,'LD',1,   6,   1,     2.630,     0.940,     0.000,     0.000,     0.000,     0.000,   3
27472,'LD',1,   6,   1,     2.630,     0.940,     0.000,     0.000,     0.000,     0.000,   3
27473,'LD',1,   6,   1,     7.000,     2.520,     0.000,     0.000,     0.000,     0.000,   3
27604,'LD',1,   1,   1,    63.540,    20.910,     0.000,     0.000,     0.000,     0.000,   2
27802,'LD',1,   9,   1,    15.880,     5.290,     0.000,     0.000,     0.000,     0.000,   2
27804,'LD',1,   9,   1,   165.990,    52.680,     0.000,     0.000,     0.000,     0.000,   2
28604,'LD',1,   1,   1,    16.900,     4.710,     0.000,     0.000,     0.000,     0.000,   2
28804,'LD',1,   3,   1,    15.910,     5.610,     0.000,     0.000,     0.000,     0.000,   2
29401,'LD',1,   1,   1,    21.440,     7.020,     0.000,     0.000,     0.000,     0.000,   2
29671,'LD',1,   2,   2,     6.900,     2.480,     0.000,     0.000,     0.000,     0.000,   4
29801,'LD',1,   3,   1,    11.790,     1.320,     0.000,     0.000,     0.000,     0.000,   2
30804,'LD',1,   1,   1,    97.990,    20.940,     0.000,     0.000,     0.000,     0.000,   2
31004,'LD',1,   5,   1,    34.420,    11.250,     0.000,     0.000,     0.000,     0.000,   2
31271,'LD',1,   2,   2,     6.980,     2.510,     0.000,     0.000,     0.000,     0.000,   4
32201,'LD',1,   3,   1,    18.270,     5.960,     0.000,     0.000,     0.000,     0.000,   2
32204,'LD',1,   3,   1,   114.240,    20.520,     0.000,     0.000,     0.000,     0.000,   2
32404,'LD',1,   8,   1,    26.740,    10.510,     0.000,     0.000,     0.000,     0.000,   2
32604,'LD',1,   8,   1,    87.100,    28.860,     0.000,     0.000,     0.000,     0.000,   2
33004,'LD',1,   7,   1,    41.740,    10.580,     0.000,     0.000,     0.000,     0.000,   2
33601,'LD',1,   9,   2,    18.000,     5.910,     0.000,     0.000,     0.000,     0.000,   5
33601,'MI',0,   9,   2,     4.000,     1.200,     0.000,     0.000,     0.000,     0.000,   5
33801,'LD',1,   2,   2,     7.700,     2.530,     0.000,     0.000,     0.000,     0.000,   5
33801,'MI',0,   2,   2,     2.290,     0.680,     0.000,     0.000,     0.000,     0.000,   5
34001,'LD',1,   5,   1,    13.240,     2.650,     0.000,     0.000,     0.000,     0.000,   2
34404,'LD',1,   8,   1,    25.150,     8.210,     0.000,     0.000,     0.000,     0.000,   2
35004,'LD',1,   9,   1,    17.210,     5.690,     0.000,     0.000,     0.000,     0.000,   2
35078,'LD',1,   9,   3,     8.600,     3.090,     0.000,     0.000,     0.000,     0.000,   3
35404,'LD',1,   7,   1,   116.750,    36.000,     0.000,     0.000,     0.000,     0.000,   2
35604,'LD',1,  10,   1,    32.560,     8.870,     0.000,     0.000,     0.000,     0.000,   2
35804,'LD',1,   9,   1,    64.860,    18.270,     0.000,     0.000,     0.000,     0.000,   2
36001,'LD',1,   3,   1,    17.210,     5.690,     0.000,     0.000,     0.000,     0.000,   2
37601,'LD',1,   2,   1,    20.910,     6.870,     0.000,     0.000,     0.000,     0.000,   2
37602,'LD',1,   2,   2,     5.000,     1.640,     0.000,     0.000,     0.000,     0.000,   5
37602,'MI',0,   2,   2,     6.000,     1.800,     0.000,     0.000,     0.000,     0.000,   5
38001,'LD',1,   3,   1,     9.080,     2.980,     0.000,     0.000,     0.000,     0.000,   2
38004,'LD',1,   3,   1,    26.390,     8.670,     0.000,     0.000,     0.000,     0.000,   2
38204,'LD',1,  10,   1,    39.710,    13.630,     0.000,     0.000,     0.000,     0.000,   2
38804,'LD',1,   3,   1,     8.330,     1.460,     0.000,     0.000,     0.000,     0.000,   2
39471,'LD',1,   9,   1,    20.000,     7.200,     0.000,     0.000,     0.000,     0.000,   3
39472,'LD',1,   2,   2,    20.000,     7.200,     0.000,     0.000,     0.000,     0.000,   3
39473,'LD',1,   7,   1,    20.000,     7.200,     0.000,     0.000,     0.000,     0.000,   3
39601,'LD',1,   3,   1,    32.830,     7.410,     0.000,     0.000,     0.000,     0.000,   2
39672,'LD',1,   3,   1,     2.780,     1.000,     0.000,     0.000,     0.000,     0.000,   3
39675,'LD',1,   3,   1,     4.440,     1.600,     0.000,     0.000,     0.000,     0.000,   3
39801,'LD',1,   7,   2,    20.000,     6.570,     0.000,     0.000,     0.000,     0.000,   5
39801,'MI',0,   7,   2,     7.000,     2.100,     0.000,     0.000,     0.000,     0.000,   5
40004,'LD',1,   9,   1,    59.040,    21.830,     0.000,     0.000,     0.000,     0.000,   2
40204,'LD',1,   3,   1,    25.350,     6.050,     0.000,     0.000,     0.000,     0.000,   2
40404,'LD',1,   9,   1,    39.180,     9.400,     0.000,     0.000,     0.000,     0.000,   2
40602,'LD',1,  10,   2,     8.000,     2.620,     0.000,     0.000,     0.000,     0.000,   5
40801,'LD',1,   8,   1,    17.610,     6.960,     0.000,     0.000,     0.000,     0.000,   2
42004,'LD',1,   8,   1,    61.020,    20.160,     0.000,     0.000,     0.000,     0.000,   2
42204,'LD',1,  10,   1,    78.630,    26.080,     0.000,     0.000,     0.000,     0.000,   2
42604,'LD',1,   7,   1,    23.020,     7.570,     0.000,     0.000,     0.000,     0.000,   2
42802,'LD',1,   1,   2,    26.000,     8.540,     0.000,     0.000,     0.000,     0.000,   5
43604,'LD',1,   7,   1,    30.710,     8.870,     0.000,     0.000,     0.000,     0.000,   2
44671,'LD',1,   2,   2,     4.820,     1.730,     0.000,     0.000,     0.000,     0.000,   3
44672,'LD',1,   2,   2,     4.820,     1.730,     0.000,     0.000,     0.000,     0.000,   3
44673,'LD',1,   2,   2,    12.100,     4.350,     0.000,     0.000,     0.000,     0.000,   3
44804,'LD',1,   8,   1,    39.190,    13.250,     0.000,     0.000,     0.000,     0.000,   2
46210,'LD',1,   2,   2,    24.000,     7.880,     0.000,     0.000,     0.000,     0.000,   5
46214,'LD',1,   2,   2,    21.400,     7.030,     0.000,     0.000,     0.000,     0.000,   5
46224,'LD',1,   2,   2,    31.000,    10.180,     0.000,     0.000,     0.000,     0.000,   5
46501,'LD',1,   1,   1,     3.570,     1.190,     0.000,     0.000,     0.000,     0.000,   2
46804,'LD',1,   7,   1,    39.710,    13.500,     0.000,     0.000,     0.000,     0.000,   2
47004,'LD',1,   9,   1,    37.590,    13.100,     0.000,     0.000,     0.000,     0.000,   2
47402,'LD',1,   2,   2,    16.000,     5.250,     0.000,     0.000,     0.000,     0.000,   5
47601,'LD',1,   3,   1,     6.740,     2.250,     0.000,     0.000,     0.000,     0.000,   2
47802,'LD',1,  10,   1,     0.730,     0.260,     0.000,     0.000,     0.000,     0.000,   4
49478,'LD',1,   5,   1,    12.520,     4.510,     0.000,     0.000,     0.000,     0.000,   3
49604,'LD',1,  10,   1,    77.040,    30.180,     0.000,     0.000,     0.000,     0.000,   2
49804,'LD',1,   9,   1,    64.730,    32.830,     0.000,     0.000,     0.000,     0.000,   2
50004,'LD',1,   9,   1,    34.420,    12.440,     0.000,     0.000,     0.000,     0.000,   2
50276,'LD',1,   2,   2,     9.970,     3.590,     0.000,     0.000,     0.000,     0.000,   3
50604,'LD',1,   8,   1,    23.960,     9.640,     0.000,     0.000,     0.000,     0.000,   2
51471,'LD',1,   7,   1,     2.630,     0.940,     0.000,     0.000,     0.000,     0.000,   3
51472,'LD',1,   7,   1,     2.630,     0.940,     0.000,     0.000,     0.000,     0.000,   3
51473,'LD',1,   7,   1,    13.990,     5.030,     0.000,     0.000,     0.000,     0.000,   3
51474,'LD',1,   7,   1,    13.990,     5.030,     0.000,     0.000,     0.000,     0.000,   3
51771,'LD',1,   9,   1,     6.990,     2.510,     0.000,     0.000,     0.000,     0.000,   4
51801,'LD',1,   1,   1,    17.870,     5.820,     0.000,     0.000,     0.000,     0.000,   2
51804,'LD',1,   3,   1,    53.210,     1.060,     0.000,     0.000,     0.000,     0.000,   2
52204,'LD',1,   7,   1,    12.970,     3.970,     0.000,     0.000,     0.000,     0.000,   2
52604,'LD',1,   7,   1,    28.590,     8.870,     0.000,     0.000,     0.000,     0.000,   2
52804,'LD',1,   7,   1,    64.730,    12.050,     0.000,     0.000,     0.000,     0.000,   2
53004,'LD',1,   5,   1,    36.270,    13.500,     0.000,     0.000,     0.000,     0.000,   2
53204,'LD',1,   2,   1,    39.310,    14.690,     0.000,     0.000,     0.000,     0.000,   2
53404,'LD',1,   9,   1,    16.690,     5.480,     0.000,     0.000,     0.000,     0.000,   2
53604,'LD',1,   9,   1,    23.020,     4.770,     0.000,     0.000,     0.000,     0.000,   2
53804,'LD',1,   5,   1,    22.160,     6.390,     0.000,     0.000,     0.000,     0.000,   2
54404,'LD',1,   5,   1,    33.620,    10.460,     0.000,     0.000,     0.000,     0.000,   2
54801,'LD',1,   3,   2,     0.500,     0.160,     0.000,     0.000,     0.000,     0.000,   5
54801,'MI',0,   3,   2,     7.910,     2.370,     0.000,     0.000,     0.000,     0.000,   5
55004,'LD',1,   6,   1,    62.350,    18.530,     0.000,     0.000,     0.000,     0.000,   2
55201,'LD',1,   1,   1,    32.830,    10.850,     0.000,     0.000,     0.000,     0.000,   2
0 / END OF LOAD DATA, BEGIN GENERATOR DATA
 1151,'1 ',    21.000,     0.000,     0.000,     0.000,1.00000,    0,    60.000,   0.00000,   0.20000,   0.00000,   0.10000,1.00000,1,  100.0,    60.000,     0.000,   1,1.0000
 1231,'1 ',    11.000,     0.000,     0.000,     0.000,1.00000,    0,    31.500,   0.00000,   0.20000,   0.00000,   0.00000,1.00000,1,  100.0,    31.500,     0.000,   4,1.0000
 1251,'1 ',     6.800,     0.000,     0.000,     0.000,1.00000,    0,    19.450,   0.00000,   0.20000,   0.00000,   0.10000,1.00000,1,  100.0,    19.450,     0.000,   1,1.0000
 2231,'1 ',    21.000,     0.000,     0.000,     0.000,1.00000,    0,    60.000,   0.00000,   0.20000,   0.00000,   0.00000,1.00000,1,  100.0,    60.000,     0.000,   1,1.0000
 2562,'X ',   225.000,   144.654,   200.000,  -100.000,1.07500,    0,   480.000,   0.00000,   0.20000,   0.00000,   0.00000,1.00000,1,  200.0,   400.000,    80.000,   4,1.0000
 4071,'1 ',    24.800,     0.000,     0.000,     0.000,1.00000,    0,    71.000,   0.00000,   0.20000,   0.00000,   0.00000,1.00000,1,  100.0,    70.960,     0.000,   1,1.0000
10204,'1 ',     0.900,     0.000,     0.000,     0.000,1.00000,    0,     2.550,   0.00000,   0.20000,   0.00000,   0.20000,1.00000,1,  100.0,     2.550,     0.000,   4,1.0000
10204,'2 ',     0.200,     0.000,     0.000,     0.000,1.00000,    0,     0.660,   0.00000,   0.20000,   0.00000,   0.00000,1.00000,1,  100.0,     0.660,     0.000,   4,1.0000
10271,'1 ',    22.000,    13.251,    15.000,    -7.000,1.02200, 1021,    34.000,   0.00000,   0.22000,   0.00000,   0.00000,1.00000,1,   15.0,    22.000,     5.000,   3,1.0000
10272,'2 ',    22.000,    13.251,    15.000,    -7.000,1.02200, 1021,    34.000,   0.00000,   0.22000,   0.00000,   0.00000,1.00000,1,   15.0,    22.000,     5.000,   3,1.0000
10273,'3 ',    22.000,    13.251,    15.000,    -7.000,1.02200, 1021,    30.000,   0.00000,   0.22000,   0.00000,   0.00000,1.00000,1,   15.0,    22.000,     5.000,   3,1.0000
10274,'4 ',    23.000,    13.251,    15.000,    -7.000,1.02200, 1021,    34.000,   0.00000,   0.22000,   0.00000,   0.00000,1.00000,1,   15.0,    23.000,     5.000,   3,1.0000
10471,'1 ',   240.800,   131.089,   153.000,   -53.000,1.07000, 1042,   318.800,   0.00000,   0.22500,   0.00000,   0.00000,1.00000,1,  153.0,   270.000,    40.000,   3,1.0000
10472,'11',    90.000,    51.408,    60.000,   -30.000,1.07000, 1042,   100.900,   0.00000,   0.12500,   0.00000,   0.00000,1.00000,1,   60.0,    90.000,    20.000,   3,1.0000
10473,'12',    90.000,     0.000,    60.000,   -30.000,1.07500, 1042,   100.900,   0.00000,   0.12500,   0.00000,   0.00000,1.00000,0,   60.0,    90.000,    20.000,   3,1.0000
10474,'14',    90.000,     0.000,    60.000,   -30.000,1.07500, 1042,   100.900,   0.00000,   0.12500,   0.00000,   0.00000,1.00000,0,   60.0,    90.000,    20.000,   3,1.0000
10602,'1 ',     0.400,    -0.180,    -0.180,    -0.180,1.05000,    0,     1.200,   0.00000,   0.20000,   0.00000,   0.20000,1.00000,1,  100.0,     1.200,     0.000,   4,1.0000
10602,'2 ',     1.700,    -0.740,    -0.740,    -0.740,1.05000,    0,     4.850,   0.00000,   0.20000,   0.00000,   0.20000,1.00000,1,  100.0,     4.850,     0.000,   4,1.0000
10602,'3 ',     1.800,    -0.760,    -0.760,    -0.760,1.05000,    0,     5.000,   0.00000,   0.20000,   0.00000,   0.20000,1.00000,1,  100.0,     5.000,     0.000,   4,1.0000
11204,'1 ',     8.900,     0.000,     0.000,     0.000,1.05000,    0,    25.500,   0.00000,   0.20000,   0.00000,   0.20000,1.00000,1,  100.0,    25.500,     0.000,   2,1.0000
11671,'1 ',    76.500,    41.394,    50.000,   -35.000,1.07500, 1161,    93.750,   0.00000,   0.16500,   0.00000,   0.00000,1.00000,1,   50.0,    76.500,     0.000,   4,1.0000
11672,'2 ',    76.500,    41.394,    50.000,   -35.000,1.07500, 1161,    93.750,   0.00000,   0.16500,   0.00000,   0.00000,1.00000,1,   50.0,    76.500,     0.000,   4,1.0000
12804,'1 ',     3.000,     0.000,     0.000,     0.000,1.00000,    0,     8.500,   0.00000,   0.20000,   0.00000,   0.20000,1.00000,1,  100.0,     8.500,     0.000,   1,1.0000
12804,'2 ',     6.800,     0.000,     0.000,     0.000,1.00000,    0,    19.500,   0.00000,   0.20000,   0.00000,   0.00000,1.00000,1,  100.0,    19.500,     0.000,   1,1.0000
13404,'1 ',     0.200,     0.000,     0.000,     0.000,1.05000,    0,     0.660,   0.00000,   0.20000,   0.00000,   0.20000,1.00000,1,  100.0,     0.660,     0.000,   4,1.0000
14002,'3 ',     2.100,    -0.920,    -0.920,    -0.920,1.05000,    0,     6.000,   0.00000,   0.20000,   0.00000,   0.10000,1.00000,1,  100.0,     6.000,     0.000,   3,1.0000
14404,'1 ',     1.600,     0.000,     0.000,     0.000,1.00000,    0,     4.500,   0.00000,   0.20000,   0.00000,   0.00000,1.00000,1,  100.0,     4.500,     0.000,   2,1.0000
14604,'1 ',     0.000,     0.000,     1.000,    -1.000,1.05000,    0,     7.000,   0.00000,   0.15000,   0.00000,   0.10000,1.00000,0,    1.0,     0.000,     0.000,   5,1.0000
16302,'1 ',     1.200,     0.000,     0.000,     0.000,1.00000,    0,     3.400,   0.00000,   0.20000,   0.00000,   0.00000,1.00000,1,  100.0,     3.400,     0.000,   1,1.0000
16302,'2 ',     1.200,     0.000,     0.000,     0.000,1.00000,    0,     3.400,   0.00000,   0.20000,   0.00000,   0.00000,1.00000,1,  100.0,     3.400,     0.000,   1,1.0000
16302,'3 ',     2.400,     0.000,     0.000,     0.000,1.00000,    0,     6.800,   0.00000,   0.20000,   0.00000,   0.00000,1.00000,1,  100.0,     6.800,     0.000,   1,1.0000
16604,'1 ',     1.200,    -0.520,    -0.520,    -0.520,1.05000,    0,     3.400,   0.00000,   0.20000,   0.00000,   0.20000,1.00000,1,  100.0,     3.400,     0.000,   4,1.0000
16604,'2 ',     6.500,     0.000,     0.000,     0.000,1.05000,    0,    18.700,   0.00000,   0.20000,   0.00000,   0.20000,1.00000,1,  100.0,    18.700,     0.000,   4,1.0000
16873,'3 ',     8.000,     2.753,     7.000,    -1.000,1.05000, 1681,    11.500,   0.00000,   0.25000,   0.00000,   0.00000,1.00000,1,    7.0,     8.000,     2.000,   3,1.0000
17004,'4 ',     1.200,     0.000,     0.000,     0.000,1.05000,    0,     3.450,   0.00000,   0.20000,   0.00000,   0.20000,1.00000,1,  100.0,     3.400,     0.000,   2,1.0000
17004,'5 ',     1.100,    -0.470,    -0.470,    -0.470,1.05000,    0,     3.200,   0.00000,   0.20000,   0.00000,   0.20000,1.00000,1,  100.0,     3.100,     0.000,   4,1.0000
17073,'3 ',    22.500,     1.723,     7.000,   -10.000,1.02800, 1701,    30.000,   0.00000,   0.20000,   0.00000,   0.00000,1.00000,1,    7.0,    22.500,     5.000,   3,1.0000
17074,'4 ',    22.500,     1.723,     7.000,   -10.000,1.02800, 1701,    30.000,   0.00000,   0.20000,   0.00000,   0.00000,1.00000,1,    7.0,    22.500,     5.000,   3,1.0000
17671,'1 ',    10.000,     1.723,     7.000,    -3.000,1.02800, 1701,    12.500,   0.00000,   0.15000,   0.00000,   0.00000,1.00000,1,    7.0,    10.000,     3.000,   3,1.0000
17672,'2 ',    10.000,     1.723,     7.000,    -3.000,1.02800, 1701,    12.500,   0.00000,   0.13500,   0.00000,   0.00000,1.00000,1,    7.0,    10.000,     3.000,   3,1.0000
18404,'1 ',     1.800,     0.000,     0.000,     0.000,1.00000,    0,     5.200,   0.00000,   0.20000,   0.00000,   0.20000,1.00000,1,  100.0,     5.200,     0.000,   2,1.0000
19004,'1 ',     0.900,     0.000,     0.000,     0.000,1.05000,    0,     2.550,   0.00000,   0.25400,   0.00000,   0.10000,1.00000,1,  100.0,     2.550,     0.000,   2,1.0000
19402,'1 ',     8.300,   -12.000,     6.000,   -12.000,1.00000,    0,    25.000,   0.00000,   0.20000,   0.00000,   0.10000,1.00000,1,    6.0,    25.000,     0.000,   1,1.0000
19471,'1 ',   130.000,    51.696,    75.000,   -50.000,1.07500, 1941,   153.000,   0.00000,   0.15300,   0.00000,   0.00000,1.00000,1,   75.0,   130.000,    60.000,   4,1.0000
22204,'1 ',     1.600,    -0.700,    -0.700,    -0.700,1.05000,    0,     4.600,   0.00000,   0.20000,   0.00000,   0.20000,1.00000,1,  100.0,     4.600,     0.000,   3,1.0000
22204,'2 ',     2.100,    -0.920,    -0.920,    -0.920,1.05000,    0,     6.000,   0.00000,   0.20000,   0.00000,   0.20000,1.00000,1,  100.0,     6.000,     0.000,   3,1.0000
22204,'3 ',     2.100,     0.000,     0.000,     0.000,1.05000,    0,     5.950,   0.00000,   0.20000,   0.00000,   0.20000,1.00000,1,  100.0,     5.950,     0.000,   4,1.0000
27204,'5 ',     4.000,     0.000,     1.000,    -1.000,1.00000,    0,     5.000,   0.00000,   0.27000,   0.00000,   0.10000,1.00000,0,    1.0,     4.000,     0.000,   3,1.0000
27471,'1 ',    52.600,    32.448,    42.000,    -3.000,1.06000, 2741,    75.000,   0.00000,   0.16000,   0.00000,   0.00000,1.00000,1,   42.0,    60.000,    25.000,   3,1.0000
27472,'2 ',    52.600,    30.903,    40.000,    -3.000,1.06000, 2741,    75.000,   0.00000,   0.16000,   0.00000,   0.00000,1.00000,1,   40.0,    60.000,    25.000,   3,1.0000
27473,'3 ',   104.600,    74.318,    82.000,   -48.000,1.05500, 2742,   150.000,   0.00000,   0.14600,   0.00000,   0.00000,1.00000,1,   82.0,   120.000,    30.000,   3,1.0000
27804,'1 ',     1.200,    -0.500,    -0.500,    -0.500,1.05000,    0,     3.300,   0.00000,   0.20000,   0.00000,   0.20000,1.00000,1,  100.0,     3.300,     0.000,   4,1.0000
27804,'2 ',     0.200,     0.000,     0.000,     0.000,1.05000,    0,     0.675,   0.00000,   0.20000,   0.00000,   0.20000,1.00000,1,  100.0,     0.675,     0.000,   2,1.0000
28002,'1 ',     5.300,    -2.290,    -2.290,    -2.290,1.00000,    0,    15.000,   0.00000,   0.20000,   0.00000,   0.10000,1.00000,1,  100.0,    15.000,     0.000,   4,1.0000
29671,'CT',   230.000,    89.656,   173.000,  -106.000,1.07500, 4462,   288.000,   0.00000,   0.14500,   0.00000,   0.00000,1.00000,1,  173.0,   230.000,   138.000,   4,1.0000
29672,'ST',   120.000,    46.642,    90.000,   -47.000,1.07500, 4462,   150.000,   0.00000,   0.15500,   0.00000,   0.00000,1.00000,1,   90.0,   120.000,    89.000,   4,1.0000
30671,'1 ',    15.000,     1.689,    13.000,    -4.000,1.05000, 3061,    21.400,   0.00000,   0.16000,   0.00000,   0.00000,1.00000,1,    3.0,    15.000,     4.000,   3,1.0000
30671,'2 ',     4.000,     0.450,     3.000,    -1.000,1.05000, 3061,     5.700,   0.00000,   0.14000,   0.00000,   0.00000,1.00000,1,    3.0,     4.000,     1.000,   3,1.0000
31004,'1 ',     0.900,     0.000,     0.000,     0.000,1.00000,    0,     2.550,   0.00000,   0.20000,   0.00000,   0.20000,1.00000,1,  100.0,     2.550,     0.000,   2,1.0000
31271,'1 ',   399.000,   103.649,   200.000,  -114.000,1.07500, 4462,   500.000,   0.00000,   0.19000,   0.00000,   0.00000,1.00000,1,  200.0,   399.000,   163.000,   4,1.0000
32604,'1 ',     0.000,     0.000,     1.000,    -1.000,1.05000,    0,    15.000,   0.00000,   0.15000,   0.00000,   0.10000,1.00000,0,    1.0,     0.000,     0.000,   5,1.0000
33004,'1 ',     3.300,     0.000,     0.000,     0.000,1.00000,    0,     9.350,   0.00000,   0.20000,   0.00000,   0.20000,1.00000,1,  100.0,     9.350,     0.000,   2,1.0000
35078,'8 ',    99.600,    53.959,    62.000,   -40.000,1.06000, 3501,   118.000,   0.00000,   0.13700,   0.00000,   0.00000,1.00000,1,   62.0,   100.000,    40.000,   3,1.0000
35804,'1 ',     5.300,    -2.290,    -2.290,    -2.290,1.05000,    0,    15.000,   0.00000,   0.20000,   0.00000,   0.20000,1.00000,1,  100.0,    15.000,     0.000,   4,1.0000
35804,'2 ',     1.700,    -0.760,    -0.760,    -0.760,1.05000,    0,     5.300,   0.00000,   0.20000,   0.00000,   0.20000,1.00000,1,  100.0,     4.980,     0.000,   4,1.0000
35804,'3 ',     4.200,    -1.840,    -1.840,    -1.840,1.05000,    0,    12.000,   0.00000,   0.20000,   0.00000,   0.20000,1.00000,1,  100.0,    12.000,     0.000,   4,1.0000
35804,'4 ',     0.900,     0.000,     0.000,     0.000,1.05000,    0,     2.550,   0.00000,   0.20000,   0.00000,   0.20000,1.00000,1,  100.0,     2.550,     0.000,   4,1.0000
35804,'5 ',     0.900,     0.000,     0.000,     0.000,1.05000,    0,     2.550,   0.00000,   0.20000,   0.00000,   0.20000,1.00000,1,  100.0,     2.450,     0.000,   4,1.0000
38204,'1 ',     3.700,     0.000,     0.000,     0.000,1.00000,    0,    10.500,   0.00000,   0.20000,   0.00000,   0.20000,1.00000,1,  100.0,    10.500,     0.000,   4,1.0000
38204,'2 ',     1.600,     0.000,     0.000,     0.000,1.00000,    0,     4.500,   0.00000,   0.20000,   0.00000,   0.20000,1.00000,1,  100.0,     4.500,     0.000,   4,1.0000
39471,'1 ',   305.000,    87.567,   160.000,   -70.000,1.07500, 3944,   359.000,   0.00000,   0.17900,   0.00000,   0.00000,1.00000,1,  160.0,   305.000,   115.000,   3,1.0000
39472,'2 ',   305.000,    23.820,   160.000,   -70.000,1.07500, 3954,   359.000,   0.00000,   0.17900,   0.00000,   0.00000,1.00000,1,  160.0,   305.000,   115.000,   3,1.0000
39473,'3 ',   305.000,    87.567,   160.000,   -70.000,1.07500, 3944,   359.000,   0.00000,   0.17900,   0.00000,   0.00000,1.00000,1,  160.0,   305.000,   115.000,   3,1.0000
39672,'2 ',    27.800,     6.469,    15.000,     0.000,1.05000, 3961,    40.000,   0.00000,   0.12200,   0.00000,   0.00000,1.00000,1,   15.0,    30.000,    10.000,   3,1.0000
39675,'GT',    79.400,    25.876,    60.000,   -19.000,1.05000, 3961,   100.900,   0.00000,   0.12500,   0.00000,   0.00000,1.00000,1,   60.0,    90.000,    30.000,   3,1.0000
42404,'1 ',    13.500,     1.659,     5.000,     0.000,1.05000,    0,    20.000,   0.00000,   0.11700,   0.00000,   0.10500,1.07000,1,    5.0,    15.000,     6.000,   3,1.0000
42404,'2 ',    13.500,     1.659,     5.000,     0.000,1.05000,    0,    20.000,   0.00000,   0.11700,   0.00000,   0.10500,1.07000,1,    5.0,    15.000,     6.000,   3,1.0000
42404,'3 ',    13.500,     1.659,     5.000,     0.000,1.05000,    0,    20.000,   0.00000,   0.11700,   0.00000,   0.10000,1.07000,1,    5.0,    15.000,     6.000,   3,1.0000
42474,'4 ',   107.600,    28.504,    55.000,   -20.000,1.07500, 4462,   132.100,   0.00000,   0.13900,   0.00000,   0.00000,1.00000,1,   55.0,   118.000,    40.000,   3,1.0000
42475,'5 ',   109.000,     0.000,    55.000,   -20.000,1.07500, 4462,   132.100,   0.00000,   0.13900,   0.00000,   0.00000,1.00000,0,   55.0,   109.000,    20.000,   3,1.0000
44471,'1 ',    15.000,     0.402,     9.000,   -10.000,1.06000, 4441,    18.800,   0.00000,   0.27000,   0.00000,   0.00000,1.00000,1,    3.0,    15.000,     5.000,   3,1.0000
44471,'4 ',     4.000,     0.000,     3.000,    -1.000,1.06000, 4441,     5.000,   0.00000,   0.27000,   0.00000,   0.00000,1.00000,0,    3.0,     4.000,     1.000,   3,1.0000
44472,'2 ',    15.000,     1.205,     9.000,   -10.000,1.06000, 4441,    18.800,   0.00000,   0.27000,   0.00000,   0.00000,1.00000,1,    9.0,    15.000,     5.000,   3,1.0000
44671,'1 ',   104.800,    33.686,    65.000,   -43.000,1.07500, 4462,   150.000,   0.00000,   0.16700,   0.00000,   0.00000,1.00000,1,   65.0,   120.000,    60.000,   3,1.0000
44672,'2 ',   104.800,    34.204,    66.000,   -46.000,1.07500, 4462,   150.000,   0.00000,   0.16700,   0.00000,   0.00000,1.00000,1,   66.0,   120.000,    60.000,   3,1.0000
44673,'3 ',   242.100,    51.825,   100.000,   -48.000,1.07500, 4462,   318.800,   0.00000,   0.22500,   0.00000,   0.00000,1.00000,1,  100.0,   270.000,    60.000,   3,1.0000
46210,'1 ',     0.000,     0.000,     1.000,    -1.000,1.05000,    0,    20.000,   0.00000,   0.20000,   0.00000,   0.10000,1.00000,0,    1.0,     0.000,     0.000,   5,1.0000
47802,'1 ',    24.500,     0.000,     0.000,     0.000,1.00000,    0,    70.000,   0.00000,   0.20000,   0.00000,   0.10000,1.00000,1,  100.0,    70.000,     0.000,   4,1.0000
47802,'2 ',     8.700,     0.000,     0.000,     0.000,1.00000,    0,    24.800,   0.00000,   0.20000,   0.00000,   0.10000,1.00000,1,  100.0,    24.800,     0.000,   4,1.0000
49478,'8 ',   149.500,    45.484,    93.000,   -59.000,1.06000, 4942,   177.000,   0.00000,   0.12100,   0.00000,   0.00000,1.00000,1,   93.0,   150.000,    55.000,   3,1.0000
49604,'1 ',     1.100,    -0.460,    -0.460,    -0.460,1.05000,    0,     3.000,   0.00000,   0.20000,   0.00000,   0.20000,1.00000,1,  100.0,     3.000,     0.000,   4,1.0000
49604,'2 ',     1.100,     0.000,     0.000,     0.000,1.05000,    0,     3.000,   0.00000,   0.20000,   0.00000,   0.20000,1.00000,1,  100.0,     3.000,     0.000,   4,1.0000
50004,'1 ',     2.700,    -1.170,    -1.170,    -1.170,1.05000,    0,     7.650,   0.00000,   0.20000,   0.00000,   0.20000,1.00000,1,  100.0,     7.650,     0.000,   2,1.0000
50274,'14',   140.400,    38.868,    75.000,   -40.000,1.07500, 4462,   170.000,   0.00000,   0.16200,   0.00000,   0.00000,1.00000,1,   75.0,   150.000,    50.000,   3,1.0000
50275,'15',   140.400,    38.868,    75.000,   -60.000,1.07500, 4462,   170.000,   0.00000,   0.16200,   0.00000,   0.00000,1.00000,1,   75.0,   150.000,    50.000,   3,1.0000
50276,'16',   169.100,    41.460,    80.000,   -40.000,1.07500, 4462,   230.000,   0.00000,   0.15800,   0.00000,   0.00000,1.00000,1,   80.0,   170.000,    30.000,   3,1.0000
51471,'1 ',    52.600,    12.903,    25.000,   -10.000,1.07500, 5142,    75.000,   0.00000,   0.13500,   0.00000,   0.00000,1.00000,1,   25.0,    60.000,    30.000,   3,1.0000
51472,'2 ',    52.600,    12.903,    25.000,   -10.000,1.07500, 5142,    75.000,   0.00000,   0.13500,   0.00000,   0.00000,1.00000,1,   25.0,    60.000,    30.000,   3,1.0000
51473,'3 ',   234.000,    56.772,   110.000,   -45.000,1.07500, 5142,   294.000,   0.00000,   0.20700,   0.00000,   0.00000,1.00000,1,  110.0,   256.000,    40.000,   3,1.0000
51474,'4 ',   234.000,    56.772,   110.000,   -45.000,1.07500, 5142,   294.000,   0.00000,   0.20700,   0.00000,   0.00000,1.00000,1,  110.0,   256.000,    40.000,   3,1.0000
51771,'CT',   258.000,   118.521,   175.000,   -92.000,1.07500, 5172,   292.000,   0.00000,   0.17000,   0.00000,   0.00000,1.00000,1,  175.0,   258.000,   155.000,   4,1.0000
51772,'ST',   140.000,    67.726,   100.000,   -52.000,1.07500, 5172,   166.000,   0.00000,   0.13100,   0.00000,   0.00000,1.00000,1,  100.0,   140.000,   111.000,   4,1.0000
52071,'1 ',    34.414,    15.287,    40.000,   -35.000,1.08000,    0,    87.500,   0.00000,   0.15000,   0.00000,   0.00000,1.00000,1,   40.0,    73.000,   -73.000,   3,1.0000
52071,'2 ',    34.414,    15.287,    40.000,   -35.000,1.08000,    0,    87.500,   0.00000,   0.15000,   0.00000,   0.00000,1.00000,1,   40.0,    73.000,   -73.000,   3,1.0000
52071,'3 ',    34.414,    15.287,    40.000,   -35.000,1.08000,    0,    87.500,   0.00000,   0.15000,   0.00000,   0.00000,1.00000,1,   40.0,    73.000,   -73.000,   3,1.0000
52071,'4 ',    34.414,    15.287,    40.000,   -35.000,1.08000,    0,    87.500,   0.00000,   0.15000,   0.00000,   0.00000,1.00000,1,   40.0,    73.000,   -73.000,   3,1.0000
52204,'1 ',     4.400,     0.000,     0.000,     0.000,1.00000,    0,    12.600,   0.00000,   0.20000,   0.00000,   0.20000,1.00000,1,  100.0,    12.600,     0.000,   4,1.0000
52604,'1 ',     1.500,    -0.660,    -0.660,    -0.660,1.05000,    0,     4.300,   0.00000,   0.20000,   0.00000,   0.20000,1.00000,1,  100.0,     4.290,     0.000,   4,1.0000
52604,'2 ',     2.700,     0.000,     0.000,     0.000,1.05000,    0,     7.600,   0.00000,   0.20000,   0.00000,   0.20000,1.00000,1,  100.0,     7.600,     0.000,   4,1.0000
52804,'1 ',     5.300,    -2.290,    -2.290,    -2.290,1.00000,    0,    15.000,   0.00000,   0.20000,   0.00000,   0.20000,1.00000,1,    1.0,    15.000,     0.000,   4,1.0000
52804,'2 ',     2.400,    -1.040,    -1.040,    -1.040,1.00000,    0,     6.800,   0.00000,   0.20000,   0.00000,   0.20000,1.00000,1,    1.0,     6.800,     0.000,   2,1.0000
52804,'3 ',     1.400,    -0.610,    -0.610,    -0.610,1.00000,    0,     4.000,   0.00000,   0.20000,   0.00000,   0.20000,1.00000,1,    1.0,     4.000,     0.000,   4,1.0000
52804,'4 ',     5.300,     0.000,     0.000,     0.000,1.00000,    0,    15.000,   0.00000,   0.20000,   0.00000,   0.20000,1.00000,1,    1.0,    15.000,     0.000,   2,1.0000
52804,'5 ',     1.800,     0.000,     0.000,     0.000,1.00000,    0,     5.100,   0.00000,   0.20000,   0.00000,   0.20000,1.00000,1,    1.0,     5.100,     0.000,   2,1.0000
53404,'1 ',     2.100,    -0.910,    -0.910,    -0.910,1.05000,    0,     6.000,   0.00000,   0.20000,   0.00000,   0.20000,1.00000,1,  100.0,     5.940,     0.000,   3,1.0000
53604,'1 ',     1.800,    -0.760,    -0.760,    -0.760,1.05000,    0,     5.000,   0.00000,   0.20000,   0.00000,   0.20000,1.00000,1,  100.0,     5.000,     0.000,   4,1.0000
53604,'2 ',     1.700,    -0.730,    -0.730,    -0.730,1.05000,    0,     4.800,   0.00000,   0.20000,   0.00000,   0.20000,1.00000,1,  100.0,     4.800,     0.000,   4,1.0000
53604,'3 ',     4.900,     0.000,     0.000,     0.000,1.05000,    0,    14.000,   0.00000,   0.20000,   0.00000,   0.20000,1.00000,1,  100.0,    14.000,     0.000,   4,1.0000
53604,'4 ',    11.000,     0.000,     0.000,     0.000,1.05000,    0,    31.500,   0.00000,   0.20000,   0.00000,   0.20000,1.00000,1,  100.0,    31.500,     0.000,   4,1.0000
54801,'1 ',     0.000,     0.000,     1.000,    -1.000,1.05000,    0,    10.000,   0.00000,   0.13000,   0.00000,   0.10000,1.00000,0,    1.0,     0.000,     0.000,   5,1.0000
55004,'1 ',     4.100,    -1.800,    -1.800,    -1.800,1.05000,    0,    11.800,   0.00000,   0.20000,   0.00000,   0.20000,1.00000,1,  100.0,    11.800,     0.000,   4,1.0000
55004,'2 ',     7.100,     0.000,     0.000,     0.000,1.05000,    0,    20.250,   0.00000,   0.20000,   0.00000,   0.20000,1.00000,1,  100.0,    20.250,     0.000,   4,1.0000
0 / END OF GENERATOR DATA, BEGIN BRANCH DATA
   11, 42404,'1 ',   0.00360,   0.00391,   0.00207, 9999.00, 9999.00,10998.90,  0.00000,  0.00000,  0.00000,  0.00000,1,   1.00,   2,1.0000
   12,-25404,'1 ',   0.00534,   0.00795,   0.00407, 9999.00, 9999.00,10998.90,  0.00000,  0.00000,  0.00000,  0.00000,1,   1.40,   1,1.0000
   12,-25404,'3 ',   0.00594,   0.00866,   0.00435, 9999.00, 9999.00,10998.90,  0.00000,  0.00000,  0.00000,  0.00000,1,   0.00,   1,1.0000
   12, 46504,'1 ',   0.02132,   0.02114,   0.00329, 9999.00, 9999.00,10998.90,  0.00000,  0.00000,  0.00000,  0.00000,1,   5.14,   1,1.0000
   12, 46504,'2 ',   0.01937,   0.01703,   0.00256, 9999.00, 9999.00,10998.90,  0.00000,  0.00000,  0.00000,  0.00000,1,   3.96,   1,1.0000
   41, -1741,'1 ',   0.00260,   0.00480,   0.07610,  100.00,  100.00,  107.00,  0.00000,  0.00000,  0.00000,  0.00000,0,   5.00,   1,1.0000
   41, -3871,'1 ',   0.00210,   0.00380,   0.06090,  100.00,  100.00,  107.00,  0.00000,  0.00000,  0.00000,  0.00000,1,   4.00,   1,1.0000
   51,  2541,'1 ',   0.00310,   0.00960,   0.03810,  140.00,  140.00,  252.00,  0.00000,  0.00000,  0.00000,  0.00000,1,   6.00,   1,1.0000
   51,  4651,'1 ',   0.00280,   0.00880,   0.03500,  140.00,  140.00,  252.00,  0.00000,  0.00000,  0.00000,  0.00000,1,   5.50,   1,1.0000
 1021,  2121,'1 ',   0.02830,   0.06260,   0.00590,  126.00,  126.00,  138.60,  0.00000,  0.00000,  0.00000,  0.00000,1,  18.20,   1,1.0000
 1021,  2361,'1 ',   0.05100,   0.11280,   0.01050,  126.00,  126.00,  138.60,  0.00000,  0.00000,  0.00000,  0.00000,1,  32.80,   1,1.0000
 1021,  3281,'1 ',   0.01480,   0.03270,   0.00310,  126.00,  126.00,  138.60,  0.00000,  0.00000,  0.00000,  0.00000,1,   9.50,   1,1.0000
 1021,  3541,'1 ',   0.01390,   0.03810,   0.01200,  126.00,  126.00,  138.60,  0.00000,  0.00000,  0.00000,  0.00000,1,  11.70,   1,1.0000
 1041,  5481,'1 ',   0.00490,   0.01070,   0.00100,  126.00,  126.00,  138.60,  0.00000,  0.00000,  0.00000,  0.00000,1,   3.10,   1,1.0000
 1042,  3202,'1 ',   0.00300,   0.02220,   0.03350,  518.00,  518.00,  569.80,  0.00000,  0.00000,  0.00000,  0.00000,1,  25.60,   1,1.0000
 1042,  3202,'2 ',   0.00300,   0.02220,   0.03350,  518.00,  518.00,  569.80,  0.00000,  0.00000,  0.00000,  0.00000,1,  25.60,   1,1.0000
 1042,  4722,'1 ',   0.00320,   0.02340,   0.03530,  518.00,  518.00,  569.80,  0.00000,  0.00000,  0.00000,  0.00000,1,  27.00,   1,1.0000
 1061, 10619,'1 ',   0.00050,   0.00120,   0.00010,   57.00,   57.00,   62.70,  0.00000,  0.00000,  0.00000,  0.00000,1,   0.30,   1,1.0000
 1081,  3281,'1 ',   0.00390,   0.01240,   0.00390,   68.00,  112.00,  121.00,  0.00000,  0.00000,  0.00000,  0.00000,1,   3.80,   1,1.0000
 1101,  2161,'1 ',   0.00310,   0.00690,   0.00060,   45.00,  126.00,  138.60,  0.00000,  0.00000,  0.00000,  0.00000,1,   2.00,   1,1.0000
 1121,  1151,'1 ',   0.00870,   0.02700,   0.10800,  140.00,  140.00,  252.00,  0.00000,  0.00000,  0.00000,  0.00000,1,  17.00,   1,1.0000
 1121,  1301,'1 ',   0.01260,   0.08920,   0.00810,  164.00,  164.00,  180.40,  0.00000,  0.00000,  0.00000,  0.00000,1,  25.00,   1,1.0000
 1121,  1541,'1 ',   0.03520,   0.07770,   0.00730,  126.00,  126.00,  138.60,  0.00000,  0.00000,  0.00000,  0.00000,1,  22.60,   1,1.0000
 1121,  4901,'1 ',   0.00350,   0.00770,   0.00080,   57.00,   57.00,   62.70,  0.00000,  0.00000,  0.00000,  0.00000,1,   2.20,   1,1.0000
 1121,  4911,'2 ',   0.00370,   0.00830,   0.00080,   57.00,   57.00,   62.70,  0.00000,  0.00000,  0.00000,  0.00000,1,   2.40,   1,1.0000
 1122,  1742,'1 ',   0.00620,   0.04620,   0.06970,  518.00,  518.00,  569.80,  0.00000,  0.00000,  0.00000,  0.00000,1,  53.30,   1,1.0000
 1122,  2742,'1 ',   0.01020,   0.07610,   0.11480,  275.00,  518.00,  569.80,  0.00000,  0.00000,  0.00000,  0.00000,1,  87.81,   1,1.0000
 1141,  3501,'1 ',   0.05400,   0.12280,   0.01160,   68.00,  126.00,  138.60,  0.00000,  0.00000,  0.00000,  0.00000,1,  35.80,   1,1.0000
 1141,  4941,'1 ',   0.02250,   0.07210,   0.00740,  131.00,  131.00,  144.10,  0.00000,  0.00000,  0.00000,  0.00000,1,  21.60,   1,1.0000
...